Circuit: * C:\learning\UCSD\Embedded Systems Hardware Design\Week8\HW8\week8-chang\button_open_schematic\button_open.asc

Limiting rise time of source v2 to 0.0005
Limiting fall time of source v2 to 0.0005
Direct Newton iteration for .op point succeeded.

Date: Thu Mar  9 14:59:24 2023
Total elapsed time: 0.061 seconds.

tnom = 27
temp = 27
method = modified trap
totiter = 2256
traniter = 2253
tranpoints = 1120
accept = 1094
rejected = 26
matrix size = 6
fillins = 0
solver = Normal
Avg thread counts: 1.3/1.6/1.6/1.3
Matrix Compiler1: 164 bytes object code size  0.2/0.2/[0.1]
Matrix Compiler2: 320 bytes object code size  0.1/0.2/[0.1]

